
     RDKit          3D

 21 23  0  0  0  0  0  0  0  0999 V2000
    0.6411   -4.0751    0.4484 O   0  0  0  0  0  0  0  0  0  0  0  0
    1.1898    3.0998   -0.1353 C   0  0  0  0  0  0  0  0  0  0  0  0
   -0.2648    3.8502   -1.9748 C   0  0  0  0  0  0  0  0  0  0  0  0
    0.1605   -1.8257    0.2825 N   0  0  0  0  0  0  0  0  0  0  0  0
    0.3556    0.5096   -0.4436 C   0  0  0  0  0  0  0  0  0  0  0  0
   -0.0987   -1.4614    1.6798 C   0  0  0  0  0  0  0  0  0  0  0  0
   -0.8802   -0.3616    1.9844 C   0  0  0  0  0  0  0  0  0  0  0  0
   -0.1614    4.9437   -1.7121 O   0  0  0  0  0  0  0  0  0  0  0  0
   -0.8283    3.4233   -3.0289 O   0  0  0  0  0  0  0  0  0  0  0  0
   -0.1128   -0.8608   -0.6757 C   0  0  0  0  0  0  0  0  0  0  0  0
    0.3971   -2.3058    2.6841 C   0  0  0  0  0  0  0  0  0  0  0  0
    0.2521    2.7862   -1.1119 C   0  0  0  0  0  0  0  0  0  0  0  0
   -0.5432   -0.8974    4.2767 C   0  0  0  0  0  0  0  0  0  0  0  0
    1.3510    0.8316    0.4551 C   0  0  0  0  0  0  0  0  0  0  0  0
    1.1022   -3.0339   -1.5510 C   0  0  0  0  0  0  0  0  0  0  0  0
    0.6496   -3.0555   -0.1472 C   0  0  0  0  0  0  0  0  0  0  0  0
    0.5754   -1.4316   -2.3170 S   0  0  0  0  0  0  0  0  0  0  0  0
   -0.1604    1.4835   -1.2164 C   0  0  0  0  0  0  0  0  0  0  0  0
    1.7582    2.1479    0.6395 C   0  0  0  0  0  0  0  0  0  0  0  0
   -1.0600   -0.0762    3.3283 C   0  0  0  0  0  0  0  0  0  0  0  0
    0.1539   -2.0014    3.9455 C   0  0  0  0  0  0  0  0  0  0  0  0
  1 16  2  0
  2 12  2  0
  2 19  1  0
  3  8  2  0
  3  9  1  0
  3 12  1  0
  4  6  1  0
  4 10  1  0
  4 16  1  0
  5 10  1  0
  5 14  1  0
  5 18  2  0
  6  7  2  0
  6 11  1  0
  7 20  1  0
 10 17  1  0
 11 21  2  0
 12 18  1  0
 13 20  2  0
 13 21  1  0
 14 19  2  0
 15 16  1  0
 15 17  1  0
M  END
