
     RDKit          3D

 17 18  0  0  0  0  0  0  0  0999 V2000
   -1.1020    0.1272   -0.9016 N   0  0  0  0  0  0  0  0  0  0  0  0
    2.1850    1.3749   -2.8934 C   0  0  0  0  0  0  0  0  0  0  0  0
   -0.0095    0.5975   -1.6214 C   0  0  0  0  0  0  0  0  0  0  0  0
    1.7926    0.0341   -2.9153 C   0  0  0  0  0  0  0  0  0  0  0  0
   -0.2986   -2.2969    3.3136 C   0  0  0  0  0  0  0  0  0  0  0  0
   -1.6159   -0.5763    1.7348 C   0  0  0  0  0  0  0  0  0  0  0  0
   -1.9916    0.8577   -0.2571 C   0  0  0  0  0  0  0  0  0  0  0  0
    1.7840   -2.2192    1.9571 C   0  0  0  0  0  0  0  0  0  0  0  0
    0.7628   -0.3346   -2.3308 C   0  0  0  0  0  0  0  0  0  0  0  0
   -2.3783    0.3283    0.9285 N   0  0  0  0  0  0  0  0  0  0  0  0
   -2.2289   -1.0951    2.8226 C   0  0  0  0  0  0  0  0  0  0  0  0
   -2.4995    1.8593   -0.6647 O   0  0  0  0  0  0  0  0  0  0  0  0
    1.4241    2.3188   -2.2517 C   0  0  0  0  0  0  0  0  0  0  0  0
   -1.5821   -1.9362    3.5844 C   0  0  0  0  0  0  0  0  0  0  0  0
    0.3646   -1.8186    2.2875 C   0  0  0  0  0  0  0  0  0  0  0  0
    0.3055    1.9455   -1.6296 C   0  0  0  0  0  0  0  0  0  0  0  0
   -0.2891   -0.9149    1.4677 C   0  0  0  0  0  0  0  0  0  0  0  0
  1  3  1  0
  1  7  1  0
  2  4  2  0
  2 13  1  0
  3  9  2  0
  3 16  1  0
  4  9  1  0
  5 14  2  0
  5 15  1  0
  6 10  1  0
  6 11  2  0
  6 17  1  0
  7 10  1  0
  7 12  2  0
  8 15  1  0
 11 14  1  0
 13 16  2  0
 15 17  2  0
M  END
