
     RDKit          3D

 32 35  0  0  0  0  0  0  0  0999 V2000
    0.4322   -2.9942   -1.1806 C   0  0  0  0  0  0  0  0  0  0  0  0
    0.6470   -4.0596    1.1332 O   0  0  0  0  0  0  0  0  0  0  0  0
   -0.6501    2.5535    0.2107 C   0  0  0  0  0  0  0  0  0  0  0  0
   -1.9958    2.4070   -0.0150 C   0  0  0  0  0  0  0  0  0  0  0  0
    1.3920    0.2770   -3.6208 C   0  0  0  0  0  0  0  0  0  0  0  0
    0.9937    2.5149   -2.9157 C   0  0  0  0  0  0  0  0  0  0  0  0
    0.6718   -0.8855   -0.1141 C   0  0  0  0  0  0  0  0  0  0  0  0
   -1.6819    0.0616   -0.3450 C   0  0  0  0  0  0  0  0  0  0  0  0
    0.5931   -0.2405   -2.5716 N   0  0  0  0  0  0  0  0  0  0  0  0
   -0.5660   -0.3770   -2.7540 O   0  0  0  0  0  0  0  0  0  0  0  0
    3.6975    2.8300   -2.3681 C   0  0  0  0  0  0  0  0  0  0  0  0
   -0.9225   -3.5713   -1.8306 C   0  0  0  0  0  0  0  0  0  0  0  0
    0.2037    1.4791    0.1445 C   0  0  0  0  0  0  0  0  0  0  0  0
    1.3319   -0.8206   -1.5675 C   0  0  0  0  0  0  0  0  0  0  0  0
   -0.3016   -2.2132    2.3077 C   0  0  0  0  0  0  0  0  0  0  0  0
    0.1610   -2.2443   -0.0323 N   0  0  0  0  0  0  0  0  0  0  0  0
   -0.8669   -2.4134    4.4588 C   0  0  0  0  0  0  0  0  0  0  0  0
    0.2206   -2.9615    1.1078 C   0  0  0  0  0  0  0  0  0  0  0  0
   -0.3719   -2.9236    3.4045 C   0  0  0  0  0  0  0  0  0  0  0  0
   -0.3537    0.2495   -0.0891 C   0  0  0  0  0  0  0  0  0  0  0  0
    2.8111    3.8959   -2.2826 C   0  0  0  0  0  0  0  0  0  0  0  0
   -1.3033   -1.1154    4.3603 C   0  0  0  0  0  0  0  0  0  0  0  0
    3.2094    1.6288   -2.7577 C   0  0  0  0  0  0  0  0  0  0  0  0
   -0.2101    3.7942    0.5070 O   0  0  0  0  0  0  0  0  0  0  0  0
    1.1249    4.0105    0.8574 C   0  0  0  0  0  0  0  0  0  0  0  0
    1.3092   -2.2621   -2.0190 C   0  0  0  0  0  0  0  0  0  0  0  0
   -2.5601    1.2035   -0.2967 C   0  0  0  0  0  0  0  0  0  0  0  0
    1.7061   -2.5770   -3.1576 O   0  0  0  0  0  0  0  0  0  0  0  0
    1.4802    3.7552   -2.5461 C   0  0  0  0  0  0  0  0  0  0  0  0
    1.9461    1.5508   -3.0968 C   0  0  0  0  0  0  0  0  0  0  0  0
   -1.2306   -0.3711    3.2171 C   0  0  0  0  0  0  0  0  0  0  0  0
   -0.7172   -0.8771    2.1235 N   0  0  0  0  0  0  0  0  0  0  0  0
  1 12  1  0
  1 16  1  0
  1 26  1  0
  2 18  2  0
  3  4  2  0
  3 13  1  0
  3 24  1  0
  4 27  1  0
  5  9  1  0
  5 30  1  0
  6 29  2  0
  6 30  1  0
  7 14  1  0
  7 16  1  0
  7 20  1  0
  8 20  1  0
  8 27  2  0
  9 10  2  0
  9 14  1  0
 11 21  2  0
 11 23  1  0
 13 20  2  0
 14 26  1  0
 15 18  1  0
 15 19  1  0
 15 32  2  0
 16 18  1  0
 17 19  2  0
 17 22  1  0
 21 29  1  0
 22 31  2  0
 23 30  2  0
 24 25  1  0
 26 28  2  0
 31 32  1  0
M  CHG  1   9   1
M  END
