
     RDKit          3D

 22 24  0  0  0  0  0  0  0  0999 V2000
   -0.7737   -0.0256   -0.4302 C   0  0  0  0  0  0  0  0  0  0  0  0
    2.1690    0.3814    1.3239 C   0  0  0  0  0  0  0  0  0  0  0  0
   -0.6771   -3.0374   -1.1727 C   0  0  0  0  0  0  0  0  0  0  0  0
   -0.6687   -4.0997   -3.2202 C   0  0  0  0  0  0  0  0  0  0  0  0
   -0.7102    3.7261    2.2327 C   0  0  0  0  0  0  0  0  0  0  0  0
   -0.8930   -4.0610   -1.8843 C   0  0  0  0  0  0  0  0  0  0  0  0
   -0.1890   -2.9943   -3.8813 C   0  0  0  0  0  0  0  0  0  0  0  0
    2.1792    1.9279   -0.6433 C   0  0  0  0  0  0  0  0  0  0  0  0
   -1.4656    1.0948    2.1458 C   0  0  0  0  0  0  0  0  0  0  0  0
   -0.1590   -1.8975   -1.8523 C   0  0  0  0  0  0  0  0  0  0  0  0
   -0.5434    1.6677    1.2658 C   0  0  0  0  0  0  0  0  0  0  0  0
    0.0866   -1.8644   -3.2117 C   0  0  0  0  0  0  0  0  0  0  0  0
   -1.9593    1.8733    3.0558 C   0  0  0  0  0  0  0  0  0  0  0  0
   -1.6092    3.2074    3.1406 C   0  0  0  0  0  0  0  0  0  0  0  0
    0.0031    0.8774    0.2459 N   0  0  0  0  0  0  0  0  0  0  0  0
    0.1793   -0.7358   -1.0944 N   0  0  0  0  0  0  0  0  0  0  0  0
   -1.9462   -0.1642   -0.5019 O   0  0  0  0  0  0  0  0  0  0  0  0
    2.3915   -0.8649   -1.4995 O   0  0  0  0  0  0  0  0  0  0  0  0
    1.4871   -0.3704   -0.9281 C   0  0  0  0  0  0  0  0  0  0  0  0
   -0.9223   -3.0309    0.3415 C   0  0  0  0  0  0  0  0  0  0  0  0
   -0.1738    2.9865    1.3147 C   0  0  0  0  0  0  0  0  0  0  0  0
    1.4663    0.7479    0.0280 C   0  0  0  0  0  0  0  0  0  0  0  0
  1 15  1  0
  1 16  1  0
  1 17  2  0
  2 22  1  0
  3  6  2  0
  3 10  1  0
  3 20  1  0
  4  6  1  0
  4  7  2  0
  5 14  2  0
  5 21  1  0
  7 12  1  0
  8 22  1  0
  9 11  1  0
  9 13  2  0
 10 12  2  0
 10 16  1  0
 11 15  1  0
 11 21  2  0
 13 14  1  0
 15 22  1  0
 16 19  1  0
 18 19  2  0
 19 22  1  0
M  END
