
     RDKit          3D

 25 28  0  0  0  0  0  0  0  0999 V2000
    1.7915    1.3642   -1.5486 C   0  0  0  0  0  0  0  0  0  0  0  0
    3.9423    1.3262   -0.4045 C   0  0  0  0  0  0  0  0  0  0  0  0
    4.7674    3.3912   -2.0480 C   0  0  0  0  0  0  0  0  0  0  0  0
   -0.2748    1.0310   -2.1164 C   0  0  0  0  0  0  0  0  0  0  0  0
   -1.4702    1.0763   -2.5298 N   0  0  0  0  0  0  0  0  0  0  0  0
    0.8433    1.8178   -2.3657 C   0  0  0  0  0  0  0  0  0  0  0  0
   -0.8237   -2.6062    3.5682 C   0  0  0  0  0  0  0  0  0  0  0  0
   -0.1532   -1.9933   -0.0465 C   0  0  0  0  0  0  0  0  0  0  0  0
    5.5907    2.8278   -1.0880 C   0  0  0  0  0  0  0  0  0  0  0  0
   -2.3288    0.2559   -2.1599 C   0  0  0  0  0  0  0  0  0  0  0  0
    5.1602    1.8146   -0.2889 C   0  0  0  0  0  0  0  0  0  0  0  0
    3.5415    2.9236   -2.1889 C   0  0  0  0  0  0  0  0  0  0  0  0
   -2.0121   -0.8083   -1.3259 C   0  0  0  0  0  0  0  0  0  0  0  0
   -2.1751   -2.1490    1.2070 O   0  0  0  0  0  0  0  0  0  0  0  0
    1.1925   -1.9665    2.4705 C   0  0  0  0  0  0  0  0  0  0  0  0
   -0.1650   -2.2304    2.4172 C   0  0  0  0  0  0  0  0  0  0  0  0
   -3.7581    0.5024   -2.6947 C   0  0  0  0  0  0  0  0  0  0  0  0
    1.3964    0.3038   -0.8261 N   0  0  0  0  0  0  0  0  0  0  0  0
   -0.1254   -2.7438    4.7237 C   0  0  0  0  0  0  0  0  0  0  0  0
   -0.7218   -0.8555   -0.8607 C   0  0  0  0  0  0  0  0  0  0  0  0
    1.8754   -2.0952    3.5994 C   0  0  0  0  0  0  0  0  0  0  0  0
    1.2200   -2.4873    4.7358 C   0  0  0  0  0  0  0  0  0  0  0  0
    0.1428    0.1034   -1.2140 N   0  0  0  0  0  0  0  0  0  0  0  0
    3.1008    1.8786   -1.3856 C   0  0  0  0  0  0  0  0  0  0  0  0
   -0.9415   -2.1291    1.2225 C   0  0  0  0  0  0  0  0  0  0  0  0
  1  6  1  0
  1 18  2  0
  1 24  1  0
  2 11  2  0
  2 24  1  0
  3  9  2  0
  3 12  1  0
  4  5  1  0
  4  6  2  0
  4 23  1  0
  5 10  2  0
  7 16  2  0
  7 19  1  0
  8 20  1  0
  8 25  1  0
  9 11  1  0
 10 13  1  0
 10 17  1  0
 12 24  2  0
 13 20  2  0
 14 25  2  0
 15 16  1  0
 15 21  2  0
 16 25  1  0
 18 23  1  0
 19 22  2  0
 20 23  1  0
 21 22  1  0
M  END
