
     RDKit          3D

 21 23  0  0  0  0  0  0  0  0999 V2000
   -0.3523    0.5447   -0.6560 C   0  0  0  0  0  0  0  0  0  0  0  0
    0.0078    0.2131   -2.0073 C   0  0  0  0  0  0  0  0  0  0  0  0
   -0.4925    3.0572    5.2756 C   0  0  0  0  0  0  0  0  0  0  0  0
   -0.3355    2.1282    7.5078 C   0  0  0  0  0  0  0  0  0  0  0  0
    0.4665   -0.5065   -4.5421 C   0  0  0  0  0  0  0  0  0  0  0  0
   -0.3265    2.3572    1.0553 C   0  0  0  0  0  0  0  0  0  0  0  0
    0.6490    1.1029   -2.8751 C   0  0  0  0  0  0  0  0  0  0  0  0
   -0.5228    3.0053    3.9367 C   0  0  0  0  0  0  0  0  0  0  0  0
    0.0528   -2.3519   -5.6335 C   0  0  0  0  0  0  0  0  0  0  0  0
   -0.3954    0.5456    4.2273 C   0  0  0  0  0  0  0  0  0  0  0  0
    0.8645    0.7215   -4.1730 C   0  0  0  0  0  0  0  0  0  0  0  0
   -0.4775    1.4483    2.0311 N   0  0  0  0  0  0  0  0  0  0  0  0
   -0.3740    0.7074    5.4841 C   0  0  0  0  0  0  0  0  0  0  0  0
   -0.3599   -2.5890   -4.3346 O   0  0  0  0  0  0  0  0  0  0  0  0
   -0.0926   -1.3732   -3.6945 C   0  0  0  0  0  0  0  0  0  0  0  0
   -0.4093    1.9687    6.0405 C   0  0  0  0  0  0  0  0  0  0  0  0
   -0.4630    1.6811    3.4077 C   0  0  0  0  0  0  0  0  0  0  0  0
    0.0765    1.7376   -0.1651 C   0  0  0  0  0  0  0  0  0  0  0  0
   -0.3202   -1.0214   -2.4398 C   0  0  0  0  0  0  0  0  0  0  0  0
   -0.4973    3.5669    1.1292 O   0  0  0  0  0  0  0  0  0  0  0  0
    0.5539   -1.0702   -5.7745 O   0  0  0  0  0  0  0  0  0  0  0  0
  1  2  1  0
  1 18  2  3
  2  7  2  0
  2 19  1  0
  3  8  2  0
  3 16  1  0
  4 16  1  0
  5 11  2  0
  5 15  1  0
  5 21  1  0
  6 12  1  0
  6 18  1  0
  6 20  2  0
  7 11  1  0
  8 17  1  0
  9 14  1  0
  9 21  1  0
 10 13  1  0
 10 17  2  0
 12 17  1  0
 13 16  2  0
 14 15  1  0
 15 19  2  0
M  END
