
     RDKit          3D

 32 35  0  0  0  0  0  0  0  0999 V2000
   -1.1177    1.8627   -3.4520 C   0  0  0  0  0  0  0  0  0  0  0  0
    0.6098   -0.5122    3.7418 C   0  0  0  0  0  0  0  0  0  0  0  0
   -3.3219   -0.5522    1.7491 C   0  0  0  0  0  0  0  0  0  0  0  0
   -0.2323    0.1242   -2.0751 C   0  0  0  0  0  0  0  0  0  0  0  0
   -0.0817   -2.5392    1.5916 C   0  0  0  0  0  0  0  0  0  0  0  0
   -1.0331    1.0229    4.3780 C   0  0  0  0  0  0  0  0  0  0  0  0
    1.0979    1.1326   -3.9078 N   0  0  0  0  0  0  0  0  0  0  0  0
    1.2769    2.1507   -4.8574 C   0  0  0  0  0  0  0  0  0  0  0  0
    0.1390    0.7377    3.7151 C   0  0  0  0  0  0  0  0  0  0  0  0
   -1.2898   -1.3085    4.8704 C   0  0  0  0  0  0  0  0  0  0  0  0
    0.5800   -1.9888   -1.2484 O   0  0  0  0  0  0  0  0  0  0  0  0
    2.1068    0.2507   -3.7444 C   0  0  0  0  0  0  0  0  0  0  0  0
   -1.9509   -0.8214    1.6714 C   0  0  0  0  0  0  0  0  0  0  0  0
    2.0014   -1.0306    1.6818 C   0  0  0  0  0  0  0  0  0  0  0  0
   -2.4543   -3.1408    1.8090 C   0  0  0  0  0  0  0  0  0  0  0  0
   -4.1920   -1.6324    1.8285 C   0  0  0  0  0  0  0  0  0  0  0  0
   -2.3947    0.8740   -1.7464 C   0  0  0  0  0  0  0  0  0  0  0  0
    3.0000   -0.5902   -0.3860 C   0  0  0  0  0  0  0  0  0  0  0  0
   -1.4257    0.0599   -1.4387 C   0  0  0  0  0  0  0  0  0  0  0  0
    2.5591    0.0852    0.9524 C   0  0  0  0  0  0  0  0  0  0  0  0
   -0.0767   -1.5576    4.2529 C   0  0  0  0  0  0  0  0  0  0  0  0
    2.6881    0.4646   -2.3874 C   0  0  0  0  0  0  0  0  0  0  0  0
   -0.0377    1.0609   -3.1673 C   0  0  0  0  0  0  0  0  0  0  0  0
   -1.5967   -2.1516    1.7034 C   0  0  0  0  0  0  0  0  0  0  0  0
   -3.7388   -2.8887    1.8645 C   0  0  0  0  0  0  0  0  0  0  0  0
    2.1193   -0.2462   -1.4434 N   0  0  0  0  0  0  0  0  0  0  0  0
    0.8598   -0.7943   -1.5379 C   0  0  0  0  0  0  0  0  0  0  0  0
    1.9700   -0.7447    3.1208 C   0  0  0  0  0  0  0  0  0  0  0  0
    3.6229    1.2847   -2.2283 O   0  0  0  0  0  0  0  0  0  0  0  0
   -1.7147   -0.0072    4.9319 C   0  0  0  0  0  0  0  0  0  0  0  0
    0.7679   -1.3789    1.2258 N   0  0  0  0  0  0  0  0  0  0  0  0
   -2.2507    1.7768   -2.7579 C   0  0  0  0  0  0  0  0  0  0  0  0
  1 23  2  0
  1 32  1  0
  2  9  1  0
  2 21  2  0
  2 28  1  0
  3 13  2  0
  3 16  1  0
  4 19  2  0
  4 23  1  0
  4 27  1  0
  5 24  1  0
  5 31  1  0
  6  9  2  0
  6 30  1  0
  7  8  1  0
  7 12  1  0
  7 23  1  0
 10 21  1  0
 10 30  2  0
 11 27  2  0
 12 22  1  0
 13 24  1  0
 14 20  1  0
 14 28  1  0
 14 31  1  0
 15 24  2  0
 15 25  1  0
 16 25  2  0
 17 19  1  0
 17 32  2  0
 18 20  1  0
 18 26  1  0
 22 26  1  0
 22 29  2  0
 26 27  1  0
M  END
