
     RDKit          3D

 20 21  0  0  0  0  0  0  0  0999 V2000
    2.8710    0.4030   -4.8329 C   0  0  0  0  0  0  0  0  0  0  0  0
   -1.6305    1.4518    3.6791 C   0  0  0  0  0  0  0  0  0  0  0  0
    1.0391    0.4403   -1.6481 C   0  0  0  0  0  0  0  0  0  0  0  0
   -2.4674    1.6607    2.6015 C   0  0  0  0  0  0  0  0  0  0  0  0
    1.8838    0.1082   -5.7284 C   0  0  0  0  0  0  0  0  0  0  0  0
   -2.1092    0.9725    4.8245 C   0  0  0  0  0  0  0  0  0  0  0  0
   -2.0090    2.3139    1.3906 C   0  0  0  0  0  0  0  0  0  0  0  0
   -3.4109    0.6311    4.9162 C   0  0  0  0  0  0  0  0  0  0  0  0
    0.5993   -0.1116   -5.2905 C   0  0  0  0  0  0  0  0  0  0  0  0
    2.5805    0.4781   -3.5628 C   0  0  0  0  0  0  0  0  0  0  0  0
   -0.5235    0.8789    0.1866 C   0  0  0  0  0  0  0  0  0  0  0  0
    0.3683   -0.0017   -3.9796 C   0  0  0  0  0  0  0  0  0  0  0  0
   -3.7914    1.2584    2.7005 C   0  0  0  0  0  0  0  0  0  0  0  0
   -4.2673    0.7598    3.8624 C   0  0  0  0  0  0  0  0  0  0  0  0
   -0.2353    0.4862   -1.1647 C   0  0  0  0  0  0  0  0  0  0  0  0
    1.3107    0.3030   -3.0568 C   0  0  0  0  0  0  0  0  0  0  0  0
   -1.6991    1.4098    0.3381 N   0  0  0  0  0  0  0  0  0  0  0  0
    2.2479    0.0136   -7.4181 Cl  0  0  0  0  0  0  0  0  0  0  0  0
    0.3024    0.7708    1.0898 O   0  0  0  0  0  0  0  0  0  0  0  0
    3.9391    0.8163   -2.4410 Cl  0  0  0  0  0  0  0  0  0  0  0  0
  1  5  2  0
  1 10  1  0
  2  4  2  0
  2  6  1  0
  3 15  2  3
  3 16  1  0
  4  7  1  0
  4 13  1  0
  5  9  1  0
  5 18  1  0
  6  8  2  0
  7 17  1  0
  8 14  1  0
  9 12  2  0
 10 16  2  0
 10 20  1  0
 11 15  1  0
 11 17  1  0
 11 19  2  0
 12 16  1  0
 13 14  2  0
M  END
