
     RDKit          3D

 31 33  0  0  0  0  0  0  0  0999 V2000
   -3.5580    2.1813   -4.8643 O   0  0  0  0  0  0  0  0  0  0  0  0
   -0.7746   -1.8799   -2.6344 C   0  0  0  0  0  0  0  0  0  0  0  0
    0.6523   -4.4456    0.3712 C   0  0  0  0  0  0  0  0  0  0  0  0
   -0.0606    1.5214    0.8729 C   0  0  0  0  0  0  0  0  0  0  0  0
    0.8283    1.1212    1.7726 N   0  0  0  0  0  0  0  0  0  0  0  0
    2.0409    0.5575    6.8770 C   0  0  0  0  0  0  0  0  0  0  0  0
   -0.5389   -4.4665   -1.5968 O   0  0  0  0  0  0  0  0  0  0  0  0
    0.1078    2.7794    0.6309 C   0  0  0  0  0  0  0  0  0  0  0  0
    1.1115   -1.8812    3.9816 C   0  0  0  0  0  0  0  0  0  0  0  0
   -4.7623    1.9505   -5.4871 C   0  0  0  0  0  0  0  0  0  0  0  0
    1.0792   -0.5726    3.6736 C   0  0  0  0  0  0  0  0  0  0  0  0
   -1.4648   -0.7838   -3.1818 C   0  0  0  0  0  0  0  0  0  0  0  0
    0.7706   -2.5107    1.8502 C   0  0  0  0  0  0  0  0  0  0  0  0
    1.2182    3.1293    1.4524 C   0  0  0  0  0  0  0  0  0  0  0  0
   -2.6363   -1.0733   -3.7801 C   0  0  0  0  0  0  0  0  0  0  0  0
    0.2357   -1.5391   -1.8135 N   0  0  0  0  0  0  0  0  0  0  0  0
    1.7842   -0.1513    5.7166 O   0  0  0  0  0  0  0  0  0  0  0  0
    0.8675   -0.2030    2.2866 C   0  0  0  0  0  0  0  0  0  0  0  0
   -3.3447   -0.1404   -4.3403 C   0  0  0  0  0  0  0  0  0  0  0  0
    1.1908    0.4239    4.7748 C   0  0  0  0  0  0  0  0  0  0  0  0
    1.6051    2.1117    2.0363 C   0  0  0  0  0  0  0  0  0  0  0  0
    0.6818   -3.4255    1.1254 O   0  0  0  0  0  0  0  0  0  0  0  0
    0.7492   -2.5963   -1.1269 N   0  0  0  0  0  0  0  0  0  0  0  0
   -0.9872    0.5227   -3.1330 C   0  0  0  0  0  0  0  0  0  0  0  0
    0.7189   -1.1716    1.3971 C   0  0  0  0  0  0  0  0  0  0  0  0
    0.9716   -2.8092    3.2069 C   0  0  0  0  0  0  0  0  0  0  0  0
    0.7198    1.4786    4.7296 O   0  0  0  0  0  0  0  0  0  0  0  0
   -2.8928    1.1521   -4.3228 C   0  0  0  0  0  0  0  0  0  0  0  0
    3.0323    2.0075    2.8793 C   0  0  0  0  0  0  0  0  0  0  0  0
    0.2192   -3.8377   -0.9268 C   0  0  0  0  0  0  0  0  0  0  0  0
   -1.6993    1.4757   -3.7119 C   0  0  0  0  0  0  0  0  0  0  0  0
  1 10  1  0
  1 28  1  0
  2 12  1  0
  2 16  2  3
  3 22  1  0
  3 30  1  0
  4  5  1  0
  4  8  2  0
  5 18  1  0
  5 21  1  0
  6 17  1  0
  7 30  2  0
  8 14  1  0
  9 11  2  0
  9 26  1  0
 11 18  1  0
 11 20  1  0
 12 15  2  0
 12 24  1  0
 13 22  1  0
 13 25  1  0
 13 26  2  0
 14 21  2  0
 15 19  1  0
 16 23  1  0
 17 20  1  0
 18 25  2  0
 19 28  2  0
 20 27  2  0
 21 29  1  0
 23 30  1  0
 24 31  2  0
 28 31  1  0
M  END
