
     RDKit          3D

 33 36  0  0  0  0  0  0  0  0999 V2000
   -1.2781    3.8224   -0.5880 C   0  0  0  0  0  0  0  0  0  0  0  0
   -1.5293    1.5201    0.7108 C   0  0  0  0  0  0  0  0  0  0  0  0
    2.1339   -3.3237    4.6698 C   0  0  0  0  0  0  0  0  0  0  0  0
    2.3369    0.7301   -0.8773 C   0  0  0  0  0  0  0  0  0  0  0  0
   -0.3123   -1.7716    2.2952 C   0  0  0  0  0  0  0  0  0  0  0  0
   -1.2889    0.3840    2.7651 C   0  0  0  0  0  0  0  0  0  0  0  0
    1.6206   -2.5523    3.6849 C   0  0  0  0  0  0  0  0  0  0  0  0
    1.3581   -4.3405    5.2093 C   0  0  0  0  0  0  0  0  0  0  0  0
    0.3080   -2.8005    3.3187 C   0  0  0  0  0  0  0  0  0  0  0  0
    3.3299    1.4811   -0.2656 O   0  0  0  0  0  0  0  0  0  0  0  0
    0.0864   -4.5786    4.7324 C   0  0  0  0  0  0  0  0  0  0  0  0
   -0.0790   -0.4517    2.9023 C   0  0  0  0  0  0  0  0  0  0  0  0
   -1.7080    0.2907    1.4890 N   0  0  0  0  0  0  0  0  0  0  0  0
    0.4090   -0.7392   -2.1489 C   0  0  0  0  0  0  0  0  0  0  0  0
   -1.4234    1.4625   -0.6986 C   0  0  0  0  0  0  0  0  0  0  0  0
    1.8127   -0.3056   -0.2773 C   0  0  0  0  0  0  0  0  0  0  0  0
   -1.4435    2.6787    1.4159 C   0  0  0  0  0  0  0  0  0  0  0  0
   -2.3114   -0.8438    1.1350 C   0  0  0  0  0  0  0  0  0  0  0  0
    3.4287    2.8188   -2.4803 C   0  0  0  0  0  0  0  0  0  0  0  0
    0.4446   -2.0113    1.1615 N   0  0  0  0  0  0  0  0  0  0  0  0
   -0.4421   -2.9996   -0.6853 O   0  0  0  0  0  0  0  0  0  0  0  0
   -3.0059   -1.3201   -0.1162 C   0  0  0  0  0  0  0  0  0  0  0  0
   -1.3353    3.8053    0.7835 C   0  0  0  0  0  0  0  0  0  0  0  0
   -1.7974   -1.9770    2.0100 C   0  0  0  0  0  0  0  0  0  0  0  0
    0.9380    0.3021   -2.7741 C   0  0  0  0  0  0  0  0  0  0  0  0
   -0.4481   -3.8328    3.7719 C   0  0  0  0  0  0  0  0  0  0  0  0
    1.8814    1.0577   -2.1605 C   0  0  0  0  0  0  0  0  0  0  0  0
    3.9189    1.0710    0.9843 C   0  0  0  0  0  0  0  0  0  0  0  0
    0.2042   -2.1179   -0.1701 C   0  0  0  0  0  0  0  0  0  0  0  0
   -1.2927    2.6273   -1.2913 C   0  0  0  0  0  0  0  0  0  0  0  0
    2.3471    2.0962   -2.8778 O   0  0  0  0  0  0  0  0  0  0  0  0
    0.8630   -0.9920   -0.9267 C   0  0  0  0  0  0  0  0  0  0  0  0
    0.4987    0.6848   -4.2040 C   0  0  0  0  0  0  0  0  0  0  0  0
  1 23  2  0
  1 30  1  0
  2 13  1  0
  2 15  1  0
  2 17  2  0
  3  7  2  0
  3  8  1  0
  4 10  1  0
  4 16  2  0
  4 27  1  0
  5  9  1  0
  5 12  1  0
  5 20  1  0
  5 24  1  0
  6 12  1  0
  6 13  1  0
  7  9  1  0
  8 11  2  0
  9 26  2  0
 10 28  1  0
 11 26  1  0
 13 18  1  0
 14 25  1  0
 14 32  2  0
 15 30  2  0
 16 32  1  0
 17 23  1  0
 18 22  1  0
 18 24  1  0
 19 31  1  0
 20 29  1  0
 21 29  2  0
 25 27  2  0
 25 33  1  0
 27 31  1  0
 29 32  1  0
M  END
