
     RDKit          3D

 21 22  0  0  0  0  0  0  0  0999 V2000
    1.5537   -0.4490   -0.2585 C   0  0  0  0  0  0  0  0  0  0  0  0
   -0.2273    0.4893    1.1382 C   0  0  0  0  0  0  0  0  0  0  0  0
    2.4454   -2.4176   -1.3469 C   0  0  0  0  0  0  0  0  0  0  0  0
   -1.5668    0.5979    0.9111 C   0  0  0  0  0  0  0  0  0  0  0  0
   -0.2987    2.0890    2.7851 C   0  0  0  0  0  0  0  0  0  0  0  0
    0.2372   -2.6829   -2.9193 C   0  0  0  0  0  0  0  0  0  0  0  0
    0.3352   -1.6379   -2.0857 C   0  0  0  0  0  0  0  0  0  0  0  0
    2.4271    1.8270    3.2297 C   0  0  0  0  0  0  0  0  0  0  0  0
    0.4719   -0.5163    0.4696 N   0  0  0  0  0  0  0  0  0  0  0  0
   -0.5762   -0.6370   -1.9873 O   0  0  0  0  0  0  0  0  0  0  0  0
   -1.8987    1.0158   -3.0505 C   0  0  0  0  0  0  0  0  0  0  0  0
    0.4409    1.2570    2.1154 C   0  0  0  0  0  0  0  0  0  0  0  0
   -1.6855   -0.4523   -2.8665 C   0  0  0  0  0  0  0  0  0  0  0  0
    2.4962    0.2953   -0.1125 O   0  0  0  0  0  0  0  0  0  0  0  0
    1.7877    1.0453    2.3527 O   0  0  0  0  0  0  0  0  0  0  0  0
    1.2843   -3.6074   -2.9633 C   0  0  0  0  0  0  0  0  0  0  0  0
   -1.6477    2.1997    2.5595 C   0  0  0  0  0  0  0  0  0  0  0  0
   -2.2441    1.4570    1.6449 C   0  0  0  0  0  0  0  0  0  0  0  0
    1.4917   -1.5574   -1.2664 C   0  0  0  0  0  0  0  0  0  0  0  0
   -2.9136   -1.1849   -2.2967 C   0  0  0  0  0  0  0  0  0  0  0  0
    2.3806   -3.4570   -2.1857 C   0  0  0  0  0  0  0  0  0  0  0  0
  1  9  1  0
  1 14  2  0
  1 19  1  0
  2  4  2  0
  2  9  1  0
  2 12  1  0
  3 19  2  0
  3 21  1  0
  4 18  1  0
  5 12  2  0
  5 17  1  0
  6  7  2  0
  6 16  1  0
  7 10  1  0
  7 19  1  0
  8 15  1  0
 10 13  1  0
 11 13  1  0
 12 15  1  0
 13 20  1  0
 16 21  2  0
 17 18  2  0
M  END
