
     RDKit          3D

 41 46  0  0  0  0  0  0  0  0999 V2000
   -1.8655   -3.3916   -0.4340 C   0  0  0  0  0  0  0  0  0  0  0  0
    0.0230   -1.2980    0.9796 C   0  0  0  0  0  0  0  0  0  0  0  0
    0.2344   -4.5998    0.1004 C   0  0  0  0  0  0  0  0  0  0  0  0
   -2.0326    6.6777    0.4724 O   0  0  0  0  0  0  0  0  0  0  0  0
    1.3960    0.4927   -0.6194 C   0  0  0  0  0  0  0  0  0  0  0  0
    0.4864   -2.0280    1.7606 O   0  0  0  0  0  0  0  0  0  0  0  0
   -0.8923    5.7089    2.2390 O   0  0  0  0  0  0  0  0  0  0  0  0
    5.3523   -0.0346   -1.7990 C   0  0  0  0  0  0  0  0  0  0  0  0
    0.8599   -0.8545   -0.1782 C   0  0  0  0  0  0  0  0  0  0  0  0
    2.8042    0.2825   -1.0560 C   0  0  0  0  0  0  0  0  0  0  0  0
   -1.8695    5.3128    0.1862 C   0  0  0  0  0  0  0  0  0  0  0  0
   -5.7371   -2.9169    3.0658 C   0  0  0  0  0  0  0  0  0  0  0  0
    4.6725   -1.1085   -1.5793 C   0  0  0  0  0  0  0  0  0  0  0  0
   -1.8975   -5.3052    0.9953 C   0  0  0  0  0  0  0  0  0  0  0  0
   -0.5004   -3.5939   -0.5493 C   0  0  0  0  0  0  0  0  0  0  0  0
    0.2093   -6.5992    1.5486 C   0  0  0  0  0  0  0  0  0  0  0  0
   -3.5560   -0.9563    0.9157 C   0  0  0  0  0  0  0  0  0  0  0  0
    2.5209   -2.2347   -1.0488 C   0  0  0  0  0  0  0  0  0  0  0  0
   -4.6319   -1.5098    1.4616 C   0  0  0  0  0  0  0  0  0  0  0  0
   -1.3707    2.8341    0.0705 C   0  0  0  0  0  0  0  0  0  0  0  0
   -1.1560    1.4475   -0.0474 C   0  0  0  0  0  0  0  0  0  0  0  0
   -2.5935   -4.2758    0.3364 C   0  0  0  0  0  0  0  0  0  0  0  0
   -0.9460    3.4828    1.1973 C   0  0  0  0  0  0  0  0  0  0  0  0
   -2.1630   -2.1770    2.5496 C   0  0  0  0  0  0  0  0  0  0  0  0
   -0.5333   -5.4934    0.8722 C   0  0  0  0  0  0  0  0  0  0  0  0
    3.5702    1.3623   -1.3040 C   0  0  0  0  0  0  0  0  0  0  0  0
   -2.3526   -1.3148    1.4904 C   0  0  0  0  0  0  0  0  0  0  0  0
   -1.3088    0.5804    0.7268 N   0  0  0  0  0  0  0  0  0  0  0  0
   -1.4129    6.8443    1.7069 C   0  0  0  0  0  0  0  0  0  0  0  0
    4.8147    1.1982   -1.6682 C   0  0  0  0  0  0  0  0  0  0  0  0
    0.2792   -2.7584   -1.5262 C   0  0  0  0  0  0  0  0  0  0  0  0
   -4.5349   -2.3523    2.5001 C   0  0  0  0  0  0  0  0  0  0  0  0
    3.3756   -1.0036   -1.2218 C   0  0  0  0  0  0  0  0  0  0  0  0
   -3.3524   -2.7211    3.0533 C   0  0  0  0  0  0  0  0  0  0  0  0
    1.2553   -1.9236   -0.9113 N   0  0  0  0  0  0  0  0  0  0  0  0
    0.9266    1.5867   -0.9256 O   0  0  0  0  0  0  0  0  0  0  0  0
   -1.2172    4.7566    1.2118 C   0  0  0  0  0  0  0  0  0  0  0  0
   -1.1893   -0.7009    0.9170 N   0  0  0  0  0  0  0  0  0  0  0  0
   -2.0155    3.4006   -0.9308 C   0  0  0  0  0  0  0  0  0  0  0  0
   -2.2779    4.6420   -0.8952 C   0  0  0  0  0  0  0  0  0  0  0  0
    2.9962   -3.3995   -1.1053 O   0  0  0  0  0  0  0  0  0  0  0  0
  1 15  2  0
  1 22  1  0
  2  6  2  0
  2  9  1  0
  2 38  1  0
  3 15  1  0
  3 25  2  0
  4 11  1  0
  4 29  1  0
  5  9  1  0
  5 10  1  0
  5 36  2  0
  7 29  1  0
  7 37  1  0
  8 13  1  0
  8 30  2  0
  9 35  1  0
 10 26  2  0
 10 33  1  0
 11 37  2  0
 11 40  1  0
 12 32  1  0
 13 33  2  0
 14 22  2  0
 14 25  1  0
 15 31  1  0
 16 25  1  0
 17 19  2  0
 17 27  1  0
 18 33  1  0
 18 35  1  0
 18 41  2  0
 19 32  1  0
 20 21  1  0
 20 23  2  0
 20 39  1  0
 21 28  2  3
 23 37  1  0
 24 27  2  0
 24 34  1  0
 26 30  1  0
 27 38  1  0
 28 38  1  0
 31 35  1  0
 32 34  2  0
 39 40  2  0
M  END
