
     RDKit          3D

 33 38  0  0  0  0  0  0  0  0999 V2000
    1.1840    2.8343    2.1108 C   0  0  0  0  0  0  0  0  0  0  0  0
   -2.0289    4.5794   -0.7410 C   0  0  0  0  0  0  0  0  0  0  0  0
   -1.1638    3.5512   -0.6688 C   0  0  0  0  0  0  0  0  0  0  0  0
    1.8488   -5.7154    0.9955 C   0  0  0  0  0  0  0  0  0  0  0  0
   -0.0764    3.7972    0.3083 C   0  0  0  0  0  0  0  0  0  0  0  0
    1.7584    0.7022    2.5009 C   0  0  0  0  0  0  0  0  0  0  0  0
   -3.2520    3.5212   -2.3656 C   0  0  0  0  0  0  0  0  0  0  0  0
   -0.2448   -2.0013   -2.4911 O   0  0  0  0  0  0  0  0  0  0  0  0
    0.5329    1.2951    0.4562 C   0  0  0  0  0  0  0  0  0  0  0  0
    0.6506   -2.7123   -0.3257 N   0  0  0  0  0  0  0  0  0  0  0  0
   -0.3146    1.3836   -1.9386 C   0  0  0  0  0  0  0  0  0  0  0  0
    1.6047   -2.8357    1.9335 O   0  0  0  0  0  0  0  0  0  0  0  0
   -5.0592    4.5752   -3.3837 C   0  0  0  0  0  0  0  0  0  0  0  0
    0.9327   -0.8340    0.6392 C   0  0  0  0  0  0  0  0  0  0  0  0
    0.5593   -4.1475   -0.4980 C   0  0  0  0  0  0  0  0  0  0  0  0
    0.5430    2.6117    0.9469 C   0  0  0  0  0  0  0  0  0  0  0  0
   -2.4273    2.4328   -2.3336 C   0  0  0  0  0  0  0  0  0  0  0  0
   -1.3473    2.4124   -1.5500 C   0  0  0  0  0  0  0  0  0  0  0  0
   -4.2886    3.4637   -3.2477 O   0  0  0  0  0  0  0  0  0  0  0  0
    0.2542    4.8781    0.6654 O   0  0  0  0  0  0  0  0  0  0  0  0
    3.0681   -6.3388    1.3314 C   0  0  0  0  0  0  0  0  0  0  0  0
    0.3330   -0.5761   -0.5721 C   0  0  0  0  0  0  0  0  0  0  0  0
    0.0670    0.7222   -0.7009 N   0  0  0  0  0  0  0  0  0  0  0  0
   -3.0197    4.5978   -1.5410 C   0  0  0  0  0  0  0  0  0  0  0  0
    1.1459    0.3411    1.3229 C   0  0  0  0  0  0  0  0  0  0  0  0
    4.2429   -6.0102    0.6004 C   0  0  0  0  0  0  0  0  0  0  0  0
    1.1644   -2.2581    0.8735 C   0  0  0  0  0  0  0  0  0  0  0  0
    1.8505   -4.8517   -0.0460 C   0  0  0  0  0  0  0  0  0  0  0  0
    2.9667   -3.5552   -1.9191 C   0  0  0  0  0  0  0  0  0  0  0  0
    4.1622   -5.1037   -0.4272 C   0  0  0  0  0  0  0  0  0  0  0  0
    0.1941   -1.8284   -1.2653 C   0  0  0  0  0  0  0  0  0  0  0  0
    1.7382    1.9350    2.8003 C   0  0  0  0  0  0  0  0  0  0  0  0
    3.0217   -4.5311   -0.7636 C   0  0  0  0  0  0  0  0  0  0  0  0
  1 16  2  0
  1 32  1  0
  2  3  2  0
  2 24  1  0
  3  5  1  0
  3 18  1  0
  4 21  2  0
  4 28  1  0
  5 16  1  0
  5 20  2  0
  6 25  1  0
  6 32  2  0
  7 17  1  0
  7 19  1  0
  7 24  2  0
  8 31  2  0
  9 16  1  0
  9 23  1  0
  9 25  2  0
 10 15  1  0
 10 27  1  0
 10 31  1  0
 11 18  1  0
 11 23  1  0
 12 27  2  0
 13 19  1  0
 14 22  2  0
 14 25  1  0
 14 27  1  0
 15 28  1  0
 17 18  2  0
 21 26  1  0
 22 23  1  0
 22 31  1  0
 26 30  2  0
 28 33  2  0
 29 33  1  0
 30 33  1  0
M  END
