
     RDKit          3D

 23 25  0  0  0  0  0  0  0  0999 V2000
   -0.4106   -0.6730    0.7874 O   0  0  0  0  0  0  0  0  0  0  0  0
   -6.1095   -1.1482    0.6741 C   0  0  0  0  0  0  0  0  0  0  0  0
   -4.9370    0.8036   -0.8107 C   0  0  0  0  0  0  0  0  0  0  0  0
    6.6577   -0.7861   -1.7171 C   0  0  0  0  0  0  0  0  0  0  0  0
   -6.8776   -0.3506   -0.1571 C   0  0  0  0  0  0  0  0  0  0  0  0
   -6.2606    0.6491   -0.9179 C   0  0  0  0  0  0  0  0  0  0  0  0
   -8.1561   -0.5254   -0.2438 O   0  0  0  0  0  0  0  0  0  0  0  0
    2.7880    0.6134   -1.9688 N   0  0  0  0  0  0  0  0  0  0  0  0
   -4.2268   -0.0110    0.0131 C   0  0  0  0  0  0  0  0  0  0  0  0
   -2.1823    1.0485   -0.5129 N   0  0  0  0  0  0  0  0  0  0  0  0
    4.7032   -2.0168   -0.3052 C   0  0  0  0  0  0  0  0  0  0  0  0
    5.9115   -2.5041   -0.2792 C   0  0  0  0  0  0  0  0  0  0  0  0
   -4.8656   -0.9599    0.7299 C   0  0  0  0  0  0  0  0  0  0  0  0
    2.2254   -0.6330   -0.2850 C   0  0  0  0  0  0  0  0  0  0  0  0
   -2.8110    0.1109    0.1189 C   0  0  0  0  0  0  0  0  0  0  0  0
    5.4673   -0.2412   -1.7839 C   0  0  0  0  0  0  0  0  0  0  0  0
    3.2236   -0.3375   -1.0898 N   0  0  0  0  0  0  0  0  0  0  0  0
    1.2541    0.1111   -0.6962 C   0  0  0  0  0  0  0  0  0  0  0  0
   -0.8619    1.0044   -0.7348 N   0  0  0  0  0  0  0  0  0  0  0  0
    4.4686   -0.8823   -1.0492 C   0  0  0  0  0  0  0  0  0  0  0  0
    6.9069   -1.9016   -0.9788 C   0  0  0  0  0  0  0  0  0  0  0  0
   -0.1044    0.0850   -0.1076 C   0  0  0  0  0  0  0  0  0  0  0  0
    1.5923    0.8959   -1.7354 N   0  0  0  0  0  0  0  0  0  0  0  0
  1 22  2  0
  2  5  2  0
  2 13  1  0
  3  6  2  0
  3  9  1  0
  4 16  2  0
  4 21  1  0
  5  6  1  0
  5  7  1  0
  8 17  1  0
  8 23  2  0
  9 13  2  0
  9 15  1  0
 10 15  2  3
 10 19  1  0
 11 12  1  0
 11 20  2  0
 12 21  2  0
 14 17  1  0
 14 18  2  0
 16 20  1  0
 17 20  1  0
 18 22  1  0
 18 23  1  0
 19 22  1  0
M  END
